
     RDKit          3D

 20 22  0  0  0  0  0  0  0  0999 V2000
    1.4754   -0.7971    2.3460 O   0  0  0  0  0  0  0  0  0  0  0  0
    0.8395   -0.4587    1.3404 C   0  0  0  0  0  0  0  0  0  0  0  0
   -0.2770    0.5235    1.2658 C   0  0  0  0  0  0  0  0  0  0  0  0
   -0.8934    1.2950    2.2229 C   0  0  0  0  0  0  0  0  0  0  0  0
   -1.9143    2.1192    1.8125 C   0  0  0  0  0  0  0  0  0  0  0  0
   -2.2888    2.1406    0.4521 C   0  0  0  0  0  0  0  0  0  0  0  0
   -1.7123    1.4097   -0.5059 N   0  0  0  0  0  0  0  0  0  0  0  0
   -0.7230    0.6157   -0.0880 C   0  0  0  0  0  0  0  0  0  0  0  0
    0.0850   -0.2845   -0.9078 C   0  0  0  0  0  0  0  0  0  0  0  0
   -0.0149   -0.4869   -2.2221 N   0  0  0  0  0  0  0  0  0  0  0  0
    0.8573   -1.3692   -2.7294 C   0  0  0  0  0  0  0  0  0  0  0  0
    1.8218   -2.0592   -1.9692 C   0  0  0  0  0  0  0  0  0  0  0  0
    1.9037   -1.8430   -0.6096 C   0  0  0  0  0  0  0  0  0  0  0  0
    1.0339   -0.9466   -0.0560 C   0  0  0  0  0  0  0  0  0  0  0  0
   -0.5810    1.2439    3.2563 H   0  0  0  0  0  0  0  0  0  0  0  0
   -2.4352    2.7530    2.5105 H   0  0  0  0  0  0  0  0  0  0  0  0
   -3.0869    2.7815    0.1267 H   0  0  0  0  0  0  0  0  0  0  0  0
    0.7890   -1.5314   -3.7916 H   0  0  0  0  0  0  0  0  0  0  0  0
    2.4871   -2.7534   -2.4591 H   0  0  0  0  0  0  0  0  0  0  0  0
    2.6338   -2.3520    0.0055 H   0  0  0  0  0  0  0  0  0  0  0  0
  1  2  2  0
  2  3  1  0
  3  4  1  0
  4  5  2  0
  5  6  1  0
  6  7  2  0
  7  8  1  0
  8  9  1  0
  9 10  2  0
 10 11  1  0
 11 12  2  0
 12 13  1  0
 13 14  2  0
 14  2  1  0
  8  3  2  0
 14  9  1  0
  4 15  1  0
  5 16  1  0
  6 17  1  0
 11 18  1  0
 12 19  1  0
 13 20  1  0
M  END
$$$$

     RDKit          3D

 20 22  0  0  0  0  0  0  0  0999 V2000
   -0.5167    1.3209   -2.5110 O   0  0  0  0  0  0  0  0  0  0  0  0
   -0.2940    0.7532   -1.4349 C   0  0  0  0  0  0  0  0  0  0  0  0
    0.7885   -0.2241   -1.1305 C   0  0  0  0  0  0  0  0  0  0  0  0
    1.8055   -0.7438   -1.8959 C   0  0  0  0  0  0  0  0  0  0  0  0
    2.6664   -1.6338   -1.2975 C   0  0  0  0  0  0  0  0  0  0  0  0
    2.4769   -1.9807    0.0555 C   0  0  0  0  0  0  0  0  0  0  0  0
    1.4963   -1.5030    0.8292 N   0  0  0  0  0  0  0  0  0  0  0  0
    0.6718   -0.6376    0.2302 C   0  0  0  0  0  0  0  0  0  0  0  0
   -0.4701    0.0511    0.8286 C   0  0  0  0  0  0  0  0  0  0  0  0
   -0.9199   -0.0673    2.0769 N   0  0  0  0  0  0  0  0  0  0  0  0
   -1.9877    0.6858    2.3759 C   0  0  0  0  0  0  0  0  0  0  0  0
   -2.6220    1.5580    1.4696 C   0  0  0  0  0  0  0  0  0  0  0  0
   -2.1488    1.6623    0.1781 C   0  0  0  0  0  0  0  0  0  0  0  0
   -1.0642    0.9031   -0.1646 C   0  0  0  0  0  0  0  0  0  0  0  0
    1.9215   -0.4477   -2.9274 H   0  0  0  0  0  0  0  0  0  0  0  0
    3.4842   -2.0708   -1.8430 H   0  0  0  0  0  0  0  0  0  0  0  0
    3.1502   -2.6700    0.5300 H   0  0  0  0  0  0  0  0  0  0  0  0
   -2.3548    0.5908    3.3819 H   0  0  0  0  0  0  0  0  0  0  0  0
   -3.4764    2.1313    1.7952 H   0  0  0  0  0  0  0  0  0  0  0  0
   -2.6066    2.3223   -0.5464 H   0  0  0  0  0  0  0  0  0  0  0  0
  1  2  2  0
  2  3  1  0
  3  4  1  0
  4  5  2  0
  5  6  1  0
  6  7  2  0
  7  8  1  0
  8  9  1  0
  9 10  2  0
 10 11  1  0
 11 12  2  0
 12 13  1  0
 13 14  2  0
 14  2  1  0
  8  3  2  0
 14  9  1  0
  4 15  1  0
  5 16  1  0
  6 17  1  0
 11 18  1  0
 12 19  1  0
 13 20  1  0
M  END
$$$$

     RDKit          3D

 20 22  0  0  0  0  0  0  0  0999 V2000
   -2.7869   -0.6637   -0.3315 O   0  0  0  0  0  0  0  0  0  0  0  0
   -1.5910   -0.3816   -0.1850 C   0  0  0  0  0  0  0  0  0  0  0  0
   -1.0196    0.9156    0.2682 C   0  0  0  0  0  0  0  0  0  0  0  0
   -1.6066    2.1011    0.6412 C   0  0  0  0  0  0  0  0  0  0  0  0
   -0.7748    3.1314    1.0136 C   0  0  0  0  0  0  0  0  0  0  0  0
    0.6240    2.9438    0.9911 C   0  0  0  0  0  0  0  0  0  0  0  0
    1.2293    1.8057    0.6385 N   0  0  0  0  0  0  0  0  0  0  0  0
    0.4050    0.8166    0.2814 C   0  0  0  0  0  0  0  0  0  0  0  0
    0.7821   -0.5283   -0.1466 C   0  0  0  0  0  0  0  0  0  0  0  0
    2.0152   -1.0209   -0.2675 N   0  0  0  0  0  0  0  0  0  0  0  0
    2.0810   -2.2940   -0.6817 C   0  0  0  0  0  0  0  0  0  0  0  0
    0.9598   -3.0913   -0.9846 C   0  0  0  0  0  0  0  0  0  0  0  0
   -0.3080   -2.5623   -0.8572 C   0  0  0  0  0  0  0  0  0  0  0  0
   -0.4159   -1.2674   -0.4337 C   0  0  0  0  0  0  0  0  0  0  0  0
   -2.6825    2.2081    0.6359 H   0  0  0  0  0  0  0  0  0  0  0  0
   -1.1718    4.0833    1.3240 H   0  0  0  0  0  0  0  0  0  0  0  0
    1.2772    3.7489    1.2722 H   0  0  0  0  0  0  0  0  0  0  0  0
    3.0726   -2.6984   -0.7779 H   0  0  0  0  0  0  0  0  0  0  0  0
    1.1055   -4.1060   -1.3198 H   0  0  0  0  0  0  0  0  0  0  0  0
   -1.1945   -3.1407   -1.0807 H   0  0  0  0  0  0  0  0  0  0  0  0
  1  2  2  0
  2  3  1  0
  3  4  1  0
  4  5  2  0
  5  6  1  0
  6  7  2  0
  7  8  1  0
  8  9  1  0
  9 10  2  0
 10 11  1  0
 11 12  2  0
 12 13  1  0
 13 14  2  0
 14  2  1  0
  8  3  2  0
 14  9  1  0
  4 15  1  0
  5 16  1  0
  6 17  1  0
 11 18  1  0
 12 19  1  0
 13 20  1  0
M  END
$$$$

     RDKit          3D

 20 22  0  0  0  0  0  0  0  0999 V2000
    1.2354   -1.5958    2.0582 O   0  0  0  0  0  0  0  0  0  0  0  0
    0.6971   -0.9110    1.1788 C   0  0  0  0  0  0  0  0  0  0  0  0
    0.3905    0.5445    1.2234 C   0  0  0  0  0  0  0  0  0  0  0  0
    0.5796    1.4989    2.1956 C   0  0  0  0  0  0  0  0  0  0  0  0
    0.1736    2.7821    1.9154 C   0  0  0  0  0  0  0  0  0  0  0  0
   -0.4071    3.0741    0.6627 C   0  0  0  0  0  0  0  0  0  0  0  0
   -0.6033    2.1752   -0.3058 N   0  0  0  0  0  0  0  0  0  0  0  0
   -0.2125    0.9318   -0.0124 C   0  0  0  0  0  0  0  0  0  0  0  0
   -0.3074   -0.2463   -0.8722 C   0  0  0  0  0  0  0  0  0  0  0  0
   -0.8078   -0.3108   -2.1065 N   0  0  0  0  0  0  0  0  0  0  0  0
   -0.7722   -1.5248   -2.6730 C   0  0  0  0  0  0  0  0  0  0  0  0
   -0.2605   -2.6793   -2.0474 C   0  0  0  0  0  0  0  0  0  0  0  0
    0.2469   -2.5950   -0.7686 C   0  0  0  0  0  0  0  0  0  0  0  0
    0.2331   -1.3712   -0.1616 C   0  0  0  0  0  0  0  0  0  0  0  0
    1.0364    1.2391    3.1401 H   0  0  0  0  0  0  0  0  0  0  0  0
    0.2913    3.5746    2.6369 H   0  0  0  0  0  0  0  0  0  0  0  0
   -0.7210    4.0766    0.4389 H   0  0  0  0  0  0  0  0  0  0  0  0
   -1.1655   -1.5861   -3.6725 H   0  0  0  0  0  0  0  0  0  0  0  0
   -0.2702   -3.6177   -2.5780 H   0  0  0  0  0  0  0  0  0  0  0  0
    0.6435   -3.4589   -0.2524 H   0  0  0  0  0  0  0  0  0  0  0  0
  1  2  2  0
  2  3  1  0
  3  4  1  0
  4  5  2  0
  5  6  1  0
  6  7  2  0
  7  8  1  0
  8  9  1  0
  9 10  2  0
 10 11  1  0
 11 12  2  0
 12 13  1  0
 13 14  2  0
 14  2  1  0
  8  3  2  0
 14  9  1  0
  4 15  1  0
  5 16  1  0
  6 17  1  0
 11 18  1  0
 12 19  1  0
 13 20  1  0
M  END
$$$$

     RDKit          3D

 20 22  0  0  0  0  0  0  0  0999 V2000
   -0.2802   -1.5213   -2.4372 O   0  0  0  0  0  0  0  0  0  0  0  0
   -0.1619   -0.8706   -1.3907 C   0  0  0  0  0  0  0  0  0  0  0  0
   -0.1577    0.6111   -1.2457 C   0  0  0  0  0  0  0  0  0  0  0  0
   -0.2830    1.6298   -2.1612 C   0  0  0  0  0  0  0  0  0  0  0  0
   -0.2330    2.9201   -1.6885 C   0  0  0  0  0  0  0  0  0  0  0  0
   -0.0560    3.1506   -0.3077 C   0  0  0  0  0  0  0  0  0  0  0  0
    0.0657    2.1876    0.6100 N   0  0  0  0  0  0  0  0  0  0  0  0
    0.0155    0.9419    0.1313 C   0  0  0  0  0  0  0  0  0  0  0  0
    0.1169   -0.2956    0.8989 C   0  0  0  0  0  0  0  0  0  0  0  0
    0.2814   -0.4123    2.2162 N   0  0  0  0  0  0  0  0  0  0  0  0
    0.3425   -1.6728    2.6690 C   0  0  0  0  0  0  0  0  0  0  0  0
    0.2489   -2.8171    1.8524 C   0  0  0  0  0  0  0  0  0  0  0  0
    0.0779   -2.6757    0.4915 C   0  0  0  0  0  0  0  0  0  0  0  0
    0.0146   -1.4046   -0.0079 C   0  0  0  0  0  0  0  0  0  0  0  0
   -0.4174    1.4113   -3.2112 H   0  0  0  0  0  0  0  0  0  0  0  0
   -0.3281    3.7640   -2.3533 H   0  0  0  0  0  0  0  0  0  0  0  0
   -0.0138    4.1569    0.0663 H   0  0  0  0  0  0  0  0  0  0  0  0
    0.4657   -1.7776    3.7324 H   0  0  0  0  0  0  0  0  0  0  0  0
    0.3119   -3.7955    2.3014 H   0  0  0  0  0  0  0  0  0  0  0  0
   -0.0099   -3.5302   -0.1661 H   0  0  0  0  0  0  0  0  0  0  0  0
  1  2  2  0
  2  3  1  0
  3  4  1  0
  4  5  2  0
  5  6  1  0
  6  7  2  0
  7  8  1  0
  8  9  1  0
  9 10  2  0
 10 11  1  0
 11 12  2  0
 12 13  1  0
 13 14  2  0
 14  2  1  0
  8  3  2  0
 14  9  1  0
  4 15  1  0
  5 16  1  0
  6 17  1  0
 11 18  1  0
 12 19  1  0
 13 20  1  0
M  END
$$$$

     RDKit          3D

 20 22  0  0  0  0  0  0  0  0999 V2000
    2.8175   -0.2731   -0.5732 O   0  0  0  0  0  0  0  0  0  0  0  0
    1.6087   -0.1626   -0.3300 C   0  0  0  0  0  0  0  0  0  0  0  0
    0.4869   -0.1047   -1.3074 C   0  0  0  0  0  0  0  0  0  0  0  0
    0.4503   -0.1618   -2.6807 C   0  0  0  0  0  0  0  0  0  0  0  0
   -0.7795   -0.0689   -3.2890 C   0  0  0  0  0  0  0  0  0  0  0  0
   -1.9409    0.0807   -2.5015 C   0  0  0  0  0  0  0  0  0  0  0  0
   -1.9466    0.1317   -1.1668 N   0  0  0  0  0  0  0  0  0  0  0  0
   -0.7420    0.0436   -0.5947 C   0  0  0  0  0  0  0  0  0  0  0  0
   -0.4507    0.0739    0.8366 C   0  0  0  0  0  0  0  0  0  0  0  0
   -1.3250    0.1998    1.8343 N   0  0  0  0  0  0  0  0  0  0  0  0
   -0.7903    0.1974    3.0631 C   0  0  0  0  0  0  0  0  0  0  0  0
    0.5888    0.0838    3.3284 C   0  0  0  0  0  0  0  0  0  0  0  0
    1.4793   -0.0371    2.2825 C   0  0  0  0  0  0  0  0  0  0  0  0
    0.9698   -0.0460    1.0143 C   0  0  0  0  0  0  0  0  0  0  0  0
    1.3620   -0.2807   -3.2496 H   0  0  0  0  0  0  0  0  0  0  0  0
   -0.8749   -0.1082   -4.3605 H   0  0  0  0  0  0  0  0  0  0  0  0
   -2.9021    0.1630   -2.9743 H   0  0  0  0  0  0  0  0  0  0  0  0
   -1.4909    0.2947    3.8742 H   0  0  0  0  0  0  0  0  0  0  0  0
    0.9339    0.0991    4.3497 H   0  0  0  0  0  0  0  0  0  0  0  0
    2.5455   -0.1245    2.4444 H   0  0  0  0  0  0  0  0  0  0  0  0
  1  2  2  0
  2  3  1  0
  3  4  1  0
  4  5  2  0
  5  6  1  0
  6  7  2  0
  7  8  1  0
  8  9  1  0
  9 10  2  0
 10 11  1  0
 11 12  2  0
 12 13  1  0
 13 14  2  0
 14  2  1  0
  8  3  2  0
 14  9  1  0
  4 15  1  0
  5 16  1  0
  6 17  1  0
 11 18  1  0
 12 19  1  0
 13 20  1  0
M  END
$$$$

     RDKit          3D

 20 22  0  0  0  0  0  0  0  0999 V2000
   -2.0737    1.3593    1.4753 O   0  0  0  0  0  0  0  0  0  0  0  0
   -1.1828    0.7758    0.8452 C   0  0  0  0  0  0  0  0  0  0  0  0
   -0.8919    0.8844   -0.6112 C   0  0  0  0  0  0  0  0  0  0  0  0
   -1.4748    1.6194   -1.6160 C   0  0  0  0  0  0  0  0  0  0  0  0
   -0.9500    1.4953   -2.8817 C   0  0  0  0  0  0  0  0  0  0  0  0
    0.1446    0.6319   -3.1025 C   0  0  0  0  0  0  0  0  0  0  0  0
    0.7311   -0.0997   -2.1525 N   0  0  0  0  0  0  0  0  0  0  0  0
    0.2106    0.0365   -0.9292 C   0  0  0  0  0  0  0  0  0  0  0  0
    0.6561   -0.6269    0.2953 C   0  0  0  0  0  0  0  0  0  0  0  0
    1.6532   -1.5024    0.4210 N   0  0  0  0  0  0  0  0  0  0  0  0
    1.8585   -1.9586    1.6646 C   0  0  0  0  0  0  0  0  0  0  0  0
    1.0988   -1.5743    2.7865 C   0  0  0  0  0  0  0  0  0  0  0  0
    0.0618   -0.6779    2.6346 C   0  0  0  0  0  0  0  0  0  0  0  0
   -0.1770   -0.1887    1.3809 C   0  0  0  0  0  0  0  0  0  0  0  0
   -2.3128    2.2686   -1.4052 H   0  0  0  0  0  0  0  0  0  0  0  0
   -1.3557    2.0469   -3.7123 H   0  0  0  0  0  0  0  0  0  0  0  0
    0.5536    0.5275   -4.0909 H   0  0  0  0  0  0  0  0  0  0  0  0
    2.6623   -2.6669    1.7721 H   0  0  0  0  0  0  0  0  0  0  0  0
    1.3340   -1.9887    3.7540 H   0  0  0  0  0  0  0  0  0  0  0  0
   -0.5460   -0.3614    3.4720 H   0  0  0  0  0  0  0  0  0  0  0  0
  1  2  2  0
  2  3  1  0
  3  4  1  0
  4  5  2  0
  5  6  1  0
  6  7  2  0
  7  8  1  0
  8  9  1  0
  9 10  2  0
 10 11  1  0
 11 12  2  0
 12 13  1  0
 13 14  2  0
 14  2  1  0
  8  3  2  0
 14  9  1  0
  4 15  1  0
  5 16  1  0
  6 17  1  0
 11 18  1  0
 12 19  1  0
 13 20  1  0
M  END
$$$$

     RDKit          3D

 20 22  0  0  0  0  0  0  0  0999 V2000
   -1.5074    2.4550    0.1686 O   0  0  0  0  0  0  0  0  0  0  0  0
   -0.8563    1.4049    0.1025 C   0  0  0  0  0  0  0  0  0  0  0  0
    0.0397    0.9687   -1.0054 C   0  0  0  0  0  0  0  0  0  0  0  0
    0.3985    1.5629   -2.1919 C   0  0  0  0  0  0  0  0  0  0  0  0
    1.2601    0.8744   -3.0145 C   0  0  0  0  0  0  0  0  0  0  0  0
    1.7361   -0.3939   -2.6213 C   0  0  0  0  0  0  0  0  0  0  0  0
    1.4123   -1.0021   -1.4749 N   0  0  0  0  0  0  0  0  0  0  0  0
    0.5764   -0.3151   -0.6883 C   0  0  0  0  0  0  0  0  0  0  0  0
    0.0606   -0.7270    0.6136 C   0  0  0  0  0  0  0  0  0  0  0  0
    0.3284   -1.8589    1.2625 N   0  0  0  0  0  0  0  0  0  0  0  0
   -0.2860   -1.9950    2.4457 C   0  0  0  0  0  0  0  0  0  0  0  0
   -1.1582   -1.0392    3.0032 C   0  0  0  0  0  0  0  0  0  0  0  0
   -1.4191    0.1308    2.3194 C   0  0  0  0  0  0  0  0  0  0  0  0
   -0.8124    0.3026    1.1069 C   0  0  0  0  0  0  0  0  0  0  0  0
    0.0107    2.5361   -2.4560 H   0  0  0  0  0  0  0  0  0  0  0  0
    1.5776    1.2847   -3.9585 H   0  0  0  0  0  0  0  0  0  0  0  0
    2.4020   -0.9393   -3.2648 H   0  0  0  0  0  0  0  0  0  0  0  0
   -0.0688   -2.9042    2.9755 H   0  0  0  0  0  0  0  0  0  0  0  0
   -1.6150   -1.2349    3.9608 H   0  0  0  0  0  0  0  0  0  0  0  0
   -2.0793    0.8893    2.7170 H   0  0  0  0  0  0  0  0  0  0  0  0
  1  2  2  0
  2  3  1  0
  3  4  1  0
  4  5  2  0
  5  6  1  0
  6  7  2  0
  7  8  1  0
  8  9  1  0
  9 10  2  0
 10 11  1  0
 11 12  2  0
 12 13  1  0
 13 14  2  0
 14  2  1  0
  8  3  2  0
 14  9  1  0
  4 15  1  0
  5 16  1  0
  6 17  1  0
 11 18  1  0
 12 19  1  0
 13 20  1  0
M  END
$$$$

     RDKit          3D

 20 22  0  0  0  0  0  0  0  0999 V2000
   -0.5297    2.1392   -1.8628 O   0  0  0  0  0  0  0  0  0  0  0  0
   -0.3053    1.2193   -1.0651 C   0  0  0  0  0  0  0  0  0  0  0  0
    0.1743    1.3411    0.3397 C   0  0  0  0  0  0  0  0  0  0  0  0
    0.4902    2.4329    1.1121 C   0  0  0  0  0  0  0  0  0  0  0  0
    0.9207    2.2015    2.3981 C   0  0  0  0  0  0  0  0  0  0  0  0
    1.0218    0.8751    2.8706 C   0  0  0  0  0  0  0  0  0  0  0  0
    0.7192   -0.2091    2.1493 N   0  0  0  0  0  0  0  0  0  0  0  0
    0.3052    0.0368    0.9029 C   0  0  0  0  0  0  0  0  0  0  0  0
   -0.0886   -0.9451   -0.1054 C   0  0  0  0  0  0  0  0  0  0  0  0
   -0.1046   -2.2708    0.0284 N   0  0  0  0  0  0  0  0  0  0  0  0
   -0.4986   -2.9462   -1.0594 C   0  0  0  0  0  0  0  0  0  0  0  0
   -0.8800   -2.3426   -2.2745 C   0  0  0  0  0  0  0  0  0  0  0  0
   -0.8590   -0.9687   -2.3929 C   0  0  0  0  0  0  0  0  0  0  0  0
   -0.4583   -0.2449   -1.3058 C   0  0  0  0  0  0  0  0  0  0  0  0
    0.3960    3.4314    0.7100 H   0  0  0  0  0  0  0  0  0  0  0  0
    1.1851    3.0146    3.0528 H   0  0  0  0  0  0  0  0  0  0  0  0
    1.3569    0.6861    3.8735 H   0  0  0  0  0  0  0  0  0  0  0  0
   -0.5157   -4.0171   -0.9598 H   0  0  0  0  0  0  0  0  0  0  0  0
   -1.1819   -2.9642   -3.1025 H   0  0  0  0  0  0  0  0  0  0  0  0
   -1.1477   -0.4694   -3.3092 H   0  0  0  0  0  0  0  0  0  0  0  0
  1  2  2  0
  2  3  1  0
  3  4  1  0
  4  5  2  0
  5  6  1  0
  6  7  2  0
  7  8  1  0
  8  9  1  0
  9 10  2  0
 10 11  1  0
 11 12  2  0
 12 13  1  0
 13 14  2  0
 14  2  1  0
  8  3  2  0
 14  9  1  0
  4 15  1  0
  5 16  1  0
  6 17  1  0
 11 18  1  0
 12 19  1  0
 13 20  1  0
M  END
$$$$

     RDKit          3D

 20 22  0  0  0  0  0  0  0  0999 V2000
   -1.3275    2.4775   -0.6605 O   0  0  0  0  0  0  0  0  0  0  0  0
   -0.7561    1.4172   -0.3752 C   0  0  0  0  0  0  0  0  0  0  0  0
   -0.6622    0.7661    0.9619 C   0  0  0  0  0  0  0  0  0  0  0  0
   -1.1463    1.1195    2.2005 C   0  0  0  0  0  0  0  0  0  0  0  0
   -0.8791    0.2767    3.2545 C   0  0  0  0  0  0  0  0  0  0  0  0
   -0.1271   -0.8976    3.0370 C   0  0  0  0  0  0  0  0  0  0  0  0
    0.3620   -1.2715    1.8501 N   0  0  0  0  0  0  0  0  0  0  0  0
    0.0899   -0.4406    0.8397 C   0  0  0  0  0  0  0  0  0  0  0  0
    0.4849   -0.6018   -0.5568 C   0  0  0  0  0  0  0  0  0  0  0  0
    1.1919   -1.5994   -1.0835 N   0  0  0  0  0  0  0  0  0  0  0  0
    1.4094   -1.5097   -2.4017 C   0  0  0  0  0  0  0  0  0  0  0  0
    0.9646   -0.4448   -3.2101 C   0  0  0  0  0  0  0  0  0  0  0  0
    0.2375    0.5832   -2.6471 C   0  0  0  0  0  0  0  0  0  0  0  0
   -0.0154    0.5169   -1.3058 C   0  0  0  0  0  0  0  0  0  0  0  0
   -1.7218    2.0253    2.3258 H   0  0  0  0  0  0  0  0  0  0  0  0
   -1.2336    0.4943    4.2485 H   0  0  0  0  0  0  0  0  0  0  0  0
    0.0826   -1.5641    3.8532 H   0  0  0  0  0  0  0  0  0  0  0  0
    1.9696   -2.3197   -2.8346 H   0  0  0  0  0  0  0  0  0  0  0  0
    1.2007   -0.4445   -4.2624 H   0  0  0  0  0  0  0  0  0  0  0  0
   -0.1238    1.4170   -3.2336 H   0  0  0  0  0  0  0  0  0  0  0  0
  1  2  2  0
  2  3  1  0
  3  4  1  0
  4  5  2  0
  5  6  1  0
  6  7  2  0
  7  8  1  0
  8  9  1  0
  9 10  2  0
 10 11  1  0
 11 12  2  0
 12 13  1  0
 13 14  2  0
 14  2  1  0
  8  3  2  0
 14  9  1  0
  4 15  1  0
  5 16  1  0
  6 17  1  0
 11 18  1  0
 12 19  1  0
 13 20  1  0
M  END
$$$$

     RDKit          3D

 20 22  0  0  0  0  0  0  0  0999 V2000
    1.6061   -2.0556   -1.2302 O   0  0  0  0  0  0  0  0  0  0  0  0
    0.9150   -1.1762   -0.7019 C   0  0  0  0  0  0  0  0  0  0  0  0
    0.1436   -0.1010   -1.3844 C   0  0  0  0  0  0  0  0  0  0  0  0
   -0.0227    0.2139   -2.7117 C   0  0  0  0  0  0  0  0  0  0  0  0
   -0.8103    1.2998   -3.0140 C   0  0  0  0  0  0  0  0  0  0  0  0
   -1.4071    2.0418   -1.9734 C   0  0  0  0  0  0  0  0  0  0  0  0
   -1.2738    1.7621   -0.6726 N   0  0  0  0  0  0  0  0  0  0  0  0
   -0.5034    0.7045   -0.4000 C   0  0  0  0  0  0  0  0  0  0  0  0
   -0.1819    0.1701    0.9206 C   0  0  0  0  0  0  0  0  0  0  0  0
   -0.5961    0.6334    2.0978 N   0  0  0  0  0  0  0  0  0  0  0  0
   -0.1482   -0.0425    3.1658 C   0  0  0  0  0  0  0  0  0  0  0  0
    0.7057   -1.1619    3.0975 C   0  0  0  0  0  0  0  0  0  0  0  0
    1.1260   -1.6275    1.8691 C   0  0  0  0  0  0  0  0  0  0  0  0
    0.6839   -0.9654    0.7571 C   0  0  0  0  0  0  0  0  0  0  0  0
    0.4489   -0.3798   -3.4810 H   0  0  0  0  0  0  0  0  0  0  0  0
   -0.9795    1.5973   -4.0361 H   0  0  0  0  0  0  0  0  0  0  0  0
   -2.0242    2.8901   -2.2050 H   0  0  0  0  0  0  0  0  0  0  0  0
   -0.4859    0.3233    4.1186 H   0  0  0  0  0  0  0  0  0  0  0  0
    1.0235   -1.6424    4.0097 H   0  0  0  0  0  0  0  0  0  0  0  0
    1.7803   -2.4840    1.7741 H   0  0  0  0  0  0  0  0  0  0  0  0
  1  2  2  0
  2  3  1  0
  3  4  1  0
  4  5  2  0
  5  6  1  0
  6  7  2  0
  7  8  1  0
  8  9  1  0
  9 10  2  0
 10 11  1  0
 11 12  2  0
 12 13  1  0
 13 14  2  0
 14  2  1  0
  8  3  2  0
 14  9  1  0
  4 15  1  0
  5 16  1  0
  6 17  1  0
 11 18  1  0
 12 19  1  0
 13 20  1  0
M  END
$$$$

     RDKit          3D

 20 22  0  0  0  0  0  0  0  0999 V2000
    1.8436   -1.1926    1.8755 O   0  0  0  0  0  0  0  0  0  0  0  0
    1.0504   -0.6798    1.0762 C   0  0  0  0  0  0  0  0  0  0  0  0
    1.1603   -0.6639   -0.4095 C   0  0  0  0  0  0  0  0  0  0  0  0
    2.0942   -1.1875   -1.2713 C   0  0  0  0  0  0  0  0  0  0  0  0
    1.8929   -0.9985   -2.6195 C   0  0  0  0  0  0  0  0  0  0  0  0
    0.7601   -0.2823   -3.0620 C   0  0  0  0  0  0  0  0  0  0  0  0
   -0.1649    0.2423   -2.2533 N   0  0  0  0  0  0  0  0  0  0  0  0
    0.0446    0.0422   -0.9492 C   0  0  0  0  0  0  0  0  0  0  0  0
   -0.8054    0.4846    0.1537 C   0  0  0  0  0  0  0  0  0  0  0  0
   -1.9436    1.1710    0.0649 N   0  0  0  0  0  0  0  0  0  0  0  0
   -2.5355    1.4478    1.2350 C   0  0  0  0  0  0  0  0  0  0  0  0
   -2.0282    1.0630    2.4912 C   0  0  0  0  0  0  0  0  0  0  0  0
   -0.8442    0.3580    2.5637 C   0  0  0  0  0  0  0  0  0  0  0  0
   -0.2101    0.0570    1.3898 C   0  0  0  0  0  0  0  0  0  0  0  0
    2.9519   -1.7238   -0.8908 H   0  0  0  0  0  0  0  0  0  0  0  0
    2.5818   -1.3909   -3.3466 H   0  0  0  0  0  0  0  0  0  0  0  0
    0.5983   -0.1281   -4.1130 H   0  0  0  0  0  0  0  0  0  0  0  0
   -3.4541    2.0043    1.1698 H   0  0  0  0  0  0  0  0  0  0  0  0
   -2.5726    1.3269    3.3852 H   0  0  0  0  0  0  0  0  0  0  0  0
   -0.4197    0.0503    3.5104 H   0  0  0  0  0  0  0  0  0  0  0  0
  1  2  2  0
  2  3  1  0
  3  4  1  0
  4  5  2  0
  5  6  1  0
  6  7  2  0
  7  8  1  0
  8  9  1  0
  9 10  2  0
 10 11  1  0
 11 12  2  0
 12 13  1  0
 13 14  2  0
 14  2  1  0
  8  3  2  0
 14  9  1  0
  4 15  1  0
  5 16  1  0
  6 17  1  0
 11 18  1  0
 12 19  1  0
 13 20  1  0
M  END
$$$$
