
     RDKit          3D

 20 22  0  0  0  0  0  0  0  0999 V2000
   -1.9562    1.7168    1.2319 O   0  0  0  0  0  0  0  0  0  0  0  0
   -1.1186    0.9797    0.6993 C   0  0  0  0  0  0  0  0  0  0  0  0
    0.0014    1.3808   -0.1967 C   0  0  0  0  0  0  0  0  0  0  0  0
    0.4142    2.6058   -0.6659 C   0  0  0  0  0  0  0  0  0  0  0  0
    1.5140    2.6349   -1.4902 C   0  0  0  0  0  0  0  0  0  0  0  0
    2.1673    1.4289   -1.8241 C   0  0  0  0  0  0  0  0  0  0  0  0
    1.7916    0.2210   -1.3918 N   0  0  0  0  0  0  0  0  0  0  0  0
    0.7229    0.2137   -0.5899 C   0  0  0  0  0  0  0  0  0  0  0  0
    0.1003   -0.9514    0.0389 C   0  0  0  0  0  0  0  0  0  0  0  0
    0.4717   -2.2262   -0.0692 N   0  0  0  0  0  0  0  0  0  0  0  0
   -0.2721   -3.0988    0.6249 C   0  0  0  0  0  0  0  0  0  0  0  0
   -1.3800   -2.7451    1.4198 C   0  0  0  0  0  0  0  0  0  0  0  0
   -1.7537   -1.4220    1.5164 C   0  0  0  0  0  0  0  0  0  0  0  0
   -1.0173   -0.5029    0.8224 C   0  0  0  0  0  0  0  0  0  0  0  0
   -0.1125    3.5069   -0.3857 H   0  0  0  0  0  0  0  0  0  0  0  0
    1.8874    3.5629   -1.8887 H   0  0  0  0  0  0  0  0  0  0  0  0
    3.0292    1.4448   -2.4646 H   0  0  0  0  0  0  0  0  0  0  0  0
    0.0269   -4.1293    0.5451 H   0  0  0  0  0  0  0  0  0  0  0  0
   -1.9214   -3.5138    1.9492 H   0  0  0  0  0  0  0  0  0  0  0  0
   -2.5952   -1.1066    2.1189 H   0  0  0  0  0  0  0  0  0  0  0  0
  1  2  2  0
  2  3  1  0
  3  4  1  0
  4  5  2  0
  5  6  1  0
  6  7  2  0
  7  8  1  0
  8  9  1  0
  9 10  2  0
 10 11  1  0
 11 12  2  0
 12 13  1  0
 13 14  2  0
 14  2  1  0
  8  3  2  0
 14  9  1  0
  4 15  1  0
  5 16  1  0
  6 17  1  0
 11 18  1  0
 12 19  1  0
 13 20  1  0
M  END
$$$$

     RDKit          3D

 20 22  0  0  0  0  0  0  0  0999 V2000
    1.7811   -1.4636    1.7256 O   0  0  0  0  0  0  0  0  0  0  0  0
    1.0161   -0.8357    0.9826 C   0  0  0  0  0  0  0  0  0  0  0  0
   -0.4428   -1.0580    0.7895 C   0  0  0  0  0  0  0  0  0  0  0  0
   -1.3153   -1.9689    1.3363 C   0  0  0  0  0  0  0  0  0  0  0  0
   -2.6315   -1.9046    0.9450 C   0  0  0  0  0  0  0  0  0  0  0  0
   -3.0296   -0.9364   -0.0009 C   0  0  0  0  0  0  0  0  0  0  0  0
   -2.2108   -0.0352   -0.5539 N   0  0  0  0  0  0  0  0  0  0  0  0
   -0.9379   -0.1092   -0.1552 C   0  0  0  0  0  0  0  0  0  0  0  0
    0.1707    0.7427   -0.5821 C   0  0  0  0  0  0  0  0  0  0  0  0
    0.1268    1.7511   -1.4518 N   0  0  0  0  0  0  0  0  0  0  0  0
    1.3022    2.3580   -1.6759 C   0  0  0  0  0  0  0  0  0  0  0  0
    2.5151    2.0030   -1.0510 C   0  0  0  0  0  0  0  0  0  0  0  0
    2.5396    0.9576   -0.1517 C   0  0  0  0  0  0  0  0  0  0  0  0
    1.3629    0.3110    0.0948 C   0  0  0  0  0  0  0  0  0  0  0  0
   -0.9661   -2.7017    2.0497 H   0  0  0  0  0  0  0  0  0  0  0  0
   -3.3666   -2.5838    1.3435 H   0  0  0  0  0  0  0  0  0  0  0  0
   -4.0534   -0.8896   -0.3206 H   0  0  0  0  0  0  0  0  0  0  0  0
    1.2759    3.1650   -2.3866 H   0  0  0  0  0  0  0  0  0  0  0  0
    3.4144    2.5495   -1.2852 H   0  0  0  0  0  0  0  0  0  0  0  0
    3.4492    0.6486    0.3480 H   0  0  0  0  0  0  0  0  0  0  0  0
  1  2  2  0
  2  3  1  0
  3  4  1  0
  4  5  2  0
  5  6  1  0
  6  7  2  0
  7  8  1  0
  8  9  1  0
  9 10  2  0
 10 11  1  0
 11 12  2  0
 12 13  1  0
 13 14  2  0
 14  2  1  0
  8  3  2  0
 14  9  1  0
  4 15  1  0
  5 16  1  0
  6 17  1  0
 11 18  1  0
 12 19  1  0
 13 20  1  0
M  END
$$$$

     RDKit          3D

 20 22  0  0  0  0  0  0  0  0999 V2000
   -1.9938    1.8303   -0.9938 O   0  0  0  0  0  0  0  0  0  0  0  0
   -1.1385    1.0447   -0.5683 C   0  0  0  0  0  0  0  0  0  0  0  0
   -1.3598   -0.1708    0.2626 C   0  0  0  0  0  0  0  0  0  0  0  0
   -2.5014   -0.7507    0.7644 C   0  0  0  0  0  0  0  0  0  0  0  0
   -2.3588   -1.8952    1.5134 C   0  0  0  0  0  0  0  0  0  0  0  0
   -1.0695   -2.4238    1.7392 C   0  0  0  0  0  0  0  0  0  0  0  0
    0.0604   -1.8923    1.2633 N   0  0  0  0  0  0  0  0  0  0  0  0
   -0.0991   -0.7810    0.5385 C   0  0  0  0  0  0  0  0  0  0  0  0
    0.9499    0.0067   -0.1064 C   0  0  0  0  0  0  0  0  0  0  0  0
    2.2611   -0.2320   -0.0905 N   0  0  0  0  0  0  0  0  0  0  0  0
    3.0079    0.6529   -0.7665 C   0  0  0  0  0  0  0  0  0  0  0  0
    2.4893    1.7712   -1.4493 C   0  0  0  0  0  0  0  0  0  0  0  0
    1.1295    2.0023   -1.4534 C   0  0  0  0  0  0  0  0  0  0  0  0
    0.3366    1.1195   -0.7775 C   0  0  0  0  0  0  0  0  0  0  0  0
   -3.4694   -0.3102    0.5682 H   0  0  0  0  0  0  0  0  0  0  0  0
   -3.2140   -2.4011    1.9313 H   0  0  0  0  0  0  0  0  0  0  0  0
   -0.9524   -3.3163    2.3256 H   0  0  0  0  0  0  0  0  0  0  0  0
    4.0680    0.4662   -0.7593 H   0  0  0  0  0  0  0  0  0  0  0  0
    3.1616    2.4341   -1.9696 H   0  0  0  0  0  0  0  0  0  0  0  0
    0.6922    2.8456   -1.9718 H   0  0  0  0  0  0  0  0  0  0  0  0
  1  2  2  0
  2  3  1  0
  3  4  1  0
  4  5  2  0
  5  6  1  0
  6  7  2  0
  7  8  1  0
  8  9  1  0
  9 10  2  0
 10 11  1  0
 11 12  2  0
 12 13  1  0
 13 14  2  0
 14  2  1  0
  8  3  2  0
 14  9  1  0
  4 15  1  0
  5 16  1  0
  6 17  1  0
 11 18  1  0
 12 19  1  0
 13 20  1  0
M  END
$$$$

     RDKit          3D

 20 22  0  0  0  0  0  0  0  0999 V2000
    0.5875    1.9779    2.0132 O   0  0  0  0  0  0  0  0  0  0  0  0
    0.3330    1.1283    1.1516 C   0  0  0  0  0  0  0  0  0  0  0  0
    0.7563   -0.2995    1.1351 C   0  0  0  0  0  0  0  0  0  0  0  0
    1.5014   -1.0526    2.0117 C   0  0  0  0  0  0  0  0  0  0  0  0
    1.7166   -2.3735    1.6929 C   0  0  0  0  0  0  0  0  0  0  0  0
    1.1792   -2.9006    0.4986 C   0  0  0  0  0  0  0  0  0  0  0  0
    0.4536   -2.1986   -0.3757 N   0  0  0  0  0  0  0  0  0  0  0  0
    0.2528   -0.9183   -0.0488 C   0  0  0  0  0  0  0  0  0  0  0  0
   -0.5016    0.0759   -0.8093 C   0  0  0  0  0  0  0  0  0  0  0  0
   -1.1279   -0.1023   -1.9729 N   0  0  0  0  0  0  0  0  0  0  0  0
   -1.7491    0.9830   -2.4572 C   0  0  0  0  0  0  0  0  0  0  0  0
   -1.7562    2.2423   -1.8259 C   0  0  0  0  0  0  0  0  0  0  0  0
   -1.0977    2.4089   -0.6247 C   0  0  0  0  0  0  0  0  0  0  0  0
   -0.4607    1.3223   -0.0967 C   0  0  0  0  0  0  0  0  0  0  0  0
    1.8992   -0.6129    2.9149 H   0  0  0  0  0  0  0  0  0  0  0  0
    2.2834   -3.0183    2.3423 H   0  0  0  0  0  0  0  0  0  0  0  0
    1.3460   -3.9309    0.2450 H   0  0  0  0  0  0  0  0  0  0  0  0
   -2.2595    0.8447   -3.3944 H   0  0  0  0  0  0  0  0  0  0  0  0
   -2.2785    3.0638   -2.2890 H   0  0  0  0  0  0  0  0  0  0  0  0
   -1.0778    3.3603   -0.1105 H   0  0  0  0  0  0  0  0  0  0  0  0
  1  2  2  0
  2  3  1  0
  3  4  1  0
  4  5  2  0
  5  6  1  0
  6  7  2  0
  7  8  1  0
  8  9  1  0
  9 10  2  0
 10 11  1  0
 11 12  2  0
 12 13  1  0
 13 14  2  0
 14  2  1  0
  8  3  2  0
 14  9  1  0
  4 15  1  0
  5 16  1  0
  6 17  1  0
 11 18  1  0
 12 19  1  0
 13 20  1  0
M  END
$$$$

     RDKit          3D

 20 22  0  0  0  0  0  0  0  0999 V2000
   -2.0505   -1.1274    1.6878 O   0  0  0  0  0  0  0  0  0  0  0  0
   -1.1695   -0.6494    0.9620 C   0  0  0  0  0  0  0  0  0  0  0  0
    0.3017   -0.6660    1.1900 C   0  0  0  0  0  0  0  0  0  0  0  0
    1.0727   -1.1831    2.2032 C   0  0  0  0  0  0  0  0  0  0  0  0
    2.4355   -1.0166    2.1159 C   0  0  0  0  0  0  0  0  0  0  0  0
    2.9855   -0.3349    1.0084 C   0  0  0  0  0  0  0  0  0  0  0  0
    2.2686    0.1752    0.0039 N   0  0  0  0  0  0  0  0  0  0  0  0
    0.9477    0.0078    0.1098 C   0  0  0  0  0  0  0  0  0  0  0  0
   -0.0734    0.4628   -0.8302 C   0  0  0  0  0  0  0  0  0  0  0  0
    0.1193    1.1335   -1.9644 N   0  0  0  0  0  0  0  0  0  0  0  0
   -0.9975    1.4381   -2.6418 C   0  0  0  0  0  0  0  0  0  0  0  0
   -2.2985    1.0973   -2.2253 C   0  0  0  0  0  0  0  0  0  0  0  0
   -2.4779    0.4023   -1.0476 C   0  0  0  0  0  0  0  0  0  0  0  0
   -1.3627    0.0753   -0.3277 C   0  0  0  0  0  0  0  0  0  0  0  0
    0.6109   -1.6994    3.0335 H   0  0  0  0  0  0  0  0  0  0  0  0
    3.0924   -1.3956    2.8802 H   0  0  0  0  0  0  0  0  0  0  0  0
    4.0484   -0.2021    0.9330 H   0  0  0  0  0  0  0  0  0  0  0  0
   -0.8482    1.9807   -3.5588 H   0  0  0  0  0  0  0  0  0  0  0  0
   -3.1429    1.3834   -2.8341 H   0  0  0  0  0  0  0  0  0  0  0  0
   -3.4616    0.1181   -0.6979 H   0  0  0  0  0  0  0  0  0  0  0  0
  1  2  2  0
  2  3  1  0
  3  4  1  0
  4  5  2  0
  5  6  1  0
  6  7  2  0
  7  8  1  0
  8  9  1  0
  9 10  2  0
 10 11  1  0
 11 12  2  0
 12 13  1  0
 13 14  2  0
 14  2  1  0
  8  3  2  0
 14  9  1  0
  4 15  1  0
  5 16  1  0
  6 17  1  0
 11 18  1  0
 12 19  1  0
 13 20  1  0
M  END
$$$$

     RDKit          3D

 20 22  0  0  0  0  0  0  0  0999 V2000
   -2.5377   -0.7339    1.1622 O   0  0  0  0  0  0  0  0  0  0  0  0
   -1.4496   -0.4225    0.6604 C   0  0  0  0  0  0  0  0  0  0  0  0
   -1.0714    0.8918    0.0724 C   0  0  0  0  0  0  0  0  0  0  0  0
   -1.7728    2.0613   -0.0964 C   0  0  0  0  0  0  0  0  0  0  0  0
   -1.1198    3.1128   -0.6956 C   0  0  0  0  0  0  0  0  0  0  0  0
    0.2215    2.9585   -1.1074 C   0  0  0  0  0  0  0  0  0  0  0  0
    0.9363    1.8393   -0.9552 N   0  0  0  0  0  0  0  0  0  0  0  0
    0.2817    0.8280   -0.3775 C   0  0  0  0  0  0  0  0  0  0  0  0
    0.8040   -0.5054   -0.0925 C   0  0  0  0  0  0  0  0  0  0  0  0
    2.0272   -0.9624   -0.3567 N   0  0  0  0  0  0  0  0  0  0  0  0
    2.2475   -2.2355    0.0006 C   0  0  0  0  0  0  0  0  0  0  0  0
    1.2851   -3.0681    0.6065 C   0  0  0  0  0  0  0  0  0  0  0  0
    0.0233   -2.5764    0.8706 C   0  0  0  0  0  0  0  0  0  0  0  0
   -0.2359   -1.2799    0.5273 C   0  0  0  0  0  0  0  0  0  0  0  0
   -2.7984    2.1395    0.2363 H   0  0  0  0  0  0  0  0  0  0  0  0
   -1.6150    4.0554   -0.8588 H   0  0  0  0  0  0  0  0  0  0  0  0
    0.7379    3.7777   -1.5741 H   0  0  0  0  0  0  0  0  0  0  0  0
    3.2366   -2.6081   -0.2039 H   0  0  0  0  0  0  0  0  0  0  0  0
    1.5449   -4.0857    0.8542 H   0  0  0  0  0  0  0  0  0  0  0  0
   -0.7453   -3.1864    1.3277 H   0  0  0  0  0  0  0  0  0  0  0  0
  1  2  2  0
  2  3  1  0
  3  4  1  0
  4  5  2  0
  5  6  1  0
  6  7  2  0
  7  8  1  0
  8  9  1  0
  9 10  2  0
 10 11  1  0
 11 12  2  0
 12 13  1  0
 13 14  2  0
 14  2  1  0
  8  3  2  0
 14  9  1  0
  4 15  1  0
  5 16  1  0
  6 17  1  0
 11 18  1  0
 12 19  1  0
 13 20  1  0
M  END
$$$$

     RDKit          3D

 20 22  0  0  0  0  0  0  0  0999 V2000
   -0.3672    0.8076   -2.7433 O   0  0  0  0  0  0  0  0  0  0  0  0
   -0.2091    0.4544   -1.5680 C   0  0  0  0  0  0  0  0  0  0  0  0
    0.9659    0.7291   -0.6953 C   0  0  0  0  0  0  0  0  0  0  0  0
    2.1506    1.3878   -0.9228 C   0  0  0  0  0  0  0  0  0  0  0  0
    3.0465    1.4690    0.1172 C   0  0  0  0  0  0  0  0  0  0  0  0
    2.7244    0.8845    1.3606 C   0  0  0  0  0  0  0  0  0  0  0  0
    1.5865    0.2348    1.6170 N   0  0  0  0  0  0  0  0  0  0  0  0
    0.7321    0.1594    0.5919 C   0  0  0  0  0  0  0  0  0  0  0  0
   -0.5767   -0.4919    0.5815 C   0  0  0  0  0  0  0  0  0  0  0  0
   -1.1598   -1.1476    1.5835 N   0  0  0  0  0  0  0  0  0  0  0  0
   -2.3702   -1.6540    1.3055 C   0  0  0  0  0  0  0  0  0  0  0  0
   -3.0198   -1.5251    0.0631 C   0  0  0  0  0  0  0  0  0  0  0  0
   -2.3974   -0.8511   -0.9654 C   0  0  0  0  0  0  0  0  0  0  0  0
   -1.1604   -0.3229   -0.7215 C   0  0  0  0  0  0  0  0  0  0  0  0
    2.3578    1.8218   -1.8908 H   0  0  0  0  0  0  0  0  0  0  0  0
    3.9919    1.9712    0.0036 H   0  0  0  0  0  0  0  0  0  0  0  0
    3.4169    0.9538    2.1801 H   0  0  0  0  0  0  0  0  0  0  0  0
   -2.8478   -2.1850    2.1104 H   0  0  0  0  0  0  0  0  0  0  0  0
   -4.0007   -1.9586   -0.0720 H   0  0  0  0  0  0  0  0  0  0  0  0
   -2.8634   -0.7371   -1.9352 H   0  0  0  0  0  0  0  0  0  0  0  0
  1  2  2  0
  2  3  1  0
  3  4  1  0
  4  5  2  0
  5  6  1  0
  6  7  2  0
  7  8  1  0
  8  9  1  0
  9 10  2  0
 10 11  1  0
 11 12  2  0
 12 13  1  0
 13 14  2  0
 14  2  1  0
  8  3  2  0
 14  9  1  0
  4 15  1  0
  5 16  1  0
  6 17  1  0
 11 18  1  0
 12 19  1  0
 13 20  1  0
M  END
$$$$

     RDKit          3D

 20 22  0  0  0  0  0  0  0  0999 V2000
   -0.2437   -2.4247   -1.5506 O   0  0  0  0  0  0  0  0  0  0  0  0
   -0.1382   -1.3846   -0.8881 C   0  0  0  0  0  0  0  0  0  0  0  0
    0.5578   -1.2141    0.4172 C   0  0  0  0  0  0  0  0  0  0  0  0
    1.2460   -2.0931    1.2196 C   0  0  0  0  0  0  0  0  0  0  0  0
    1.7692   -1.6032    2.3940 C   0  0  0  0  0  0  0  0  0  0  0  0
    1.5942   -0.2419    2.7252 C   0  0  0  0  0  0  0  0  0  0  0  0
    0.9422    0.6415    1.9673 N   0  0  0  0  0  0  0  0  0  0  0  0
    0.4342    0.1457    0.8353 C   0  0  0  0  0  0  0  0  0  0  0  0
   -0.3243    0.8775   -0.1772 C   0  0  0  0  0  0  0  0  0  0  0  0
   -0.6507    2.1697   -0.1618 N   0  0  0  0  0  0  0  0  0  0  0  0
   -1.3605    2.5917   -1.2167 C   0  0  0  0  0  0  0  0  0  0  0  0
   -1.7567    1.7668   -2.2870 C   0  0  0  0  0  0  0  0  0  0  0  0
   -1.4129    0.4312   -2.2856 C   0  0  0  0  0  0  0  0  0  0  0  0
   -0.6857   -0.0367   -1.2259 C   0  0  0  0  0  0  0  0  0  0  0  0
    1.3694   -3.1252    0.9222 H   0  0  0  0  0  0  0  0  0  0  0  0
    2.3117   -2.2393    3.0718 H   0  0  0  0  0  0  0  0  0  0  0  0
    2.0043    0.1459    3.6393 H   0  0  0  0  0  0  0  0  0  0  0  0
   -1.6254    3.6344   -1.2109 H   0  0  0  0  0  0  0  0  0  0  0  0
   -2.3290    2.1894   -3.0983 H   0  0  0  0  0  0  0  0  0  0  0  0
   -1.7020   -0.2310   -3.0898 H   0  0  0  0  0  0  0  0  0  0  0  0
  1  2  2  0
  2  3  1  0
  3  4  1  0
  4  5  2  0
  5  6  1  0
  6  7  2  0
  7  8  1  0
  8  9  1  0
  9 10  2  0
 10 11  1  0
 11 12  2  0
 12 13  1  0
 13 14  2  0
 14  2  1  0
  8  3  2  0
 14  9  1  0
  4 15  1  0
  5 16  1  0
  6 17  1  0
 11 18  1  0
 12 19  1  0
 13 20  1  0
M  END
$$$$

     RDKit          3D

 20 22  0  0  0  0  0  0  0  0999 V2000
   -0.7565   -0.6097   -2.7111 O   0  0  0  0  0  0  0  0  0  0  0  0
   -0.4323   -0.3457   -1.5482 C   0  0  0  0  0  0  0  0  0  0  0  0
    0.9443   -0.2790   -0.9873 C   0  0  0  0  0  0  0  0  0  0  0  0
    2.1810   -0.4595   -1.5592 C   0  0  0  0  0  0  0  0  0  0  0  0
    3.2849   -0.3177   -0.7510 C   0  0  0  0  0  0  0  0  0  0  0  0
    3.1109   -0.0060    0.6145 C   0  0  0  0  0  0  0  0  0  0  0  0
    1.9256    0.1809    1.2039 N   0  0  0  0  0  0  0  0  0  0  0  0
    0.8668    0.0397    0.4008 C   0  0  0  0  0  0  0  0  0  0  0  0
   -0.5406    0.1942    0.7645 C   0  0  0  0  0  0  0  0  0  0  0  0
   -1.0394    0.4874    1.9643 N   0  0  0  0  0  0  0  0  0  0  0  0
   -2.3763    0.5775    2.0232 C   0  0  0  0  0  0  0  0  0  0  0  0
   -3.2343    0.3742    0.9238 C   0  0  0  0  0  0  0  0  0  0  0  0
   -2.7019    0.0610   -0.3098 C   0  0  0  0  0  0  0  0  0  0  0  0
   -1.3415   -0.0356   -0.4060 C   0  0  0  0  0  0  0  0  0  0  0  0
    2.2661   -0.7031   -2.6092 H   0  0  0  0  0  0  0  0  0  0  0  0
    4.2821   -0.4370   -1.1389 H   0  0  0  0  0  0  0  0  0  0  0  0
    3.9675    0.1059    1.2539 H   0  0  0  0  0  0  0  0  0  0  0  0
   -2.7824    0.8157    2.9903 H   0  0  0  0  0  0  0  0  0  0  0  0
   -4.3001    0.4621    1.0605 H   0  0  0  0  0  0  0  0  0  0  0  0
   -3.3241   -0.1053   -1.1791 H   0  0  0  0  0  0  0  0  0  0  0  0
  1  2  2  0
  2  3  1  0
  3  4  1  0
  4  5  2  0
  5  6  1  0
  6  7  2  0
  7  8  1  0
  8  9  1  0
  9 10  2  0
 10 11  1  0
 11 12  2  0
 12 13  1  0
 13 14  2  0
 14  2  1  0
  8  3  2  0
 14  9  1  0
  4 15  1  0
  5 16  1  0
  6 17  1  0
 11 18  1  0
 12 19  1  0
 13 20  1  0
M  END
$$$$

     RDKit          3D

 20 22  0  0  0  0  0  0  0  0999 V2000
   -1.8080    2.2082   -0.4212 O   0  0  0  0  0  0  0  0  0  0  0  0
   -1.0317    1.2613   -0.2386 C   0  0  0  0  0  0  0  0  0  0  0  0
   -1.0854   -0.0837   -0.8760 C   0  0  0  0  0  0  0  0  0  0  0  0
   -1.9529   -0.6416   -1.7864 C   0  0  0  0  0  0  0  0  0  0  0  0
   -1.7158   -1.9379   -2.1790 C   0  0  0  0  0  0  0  0  0  0  0  0
   -0.6168   -2.6395   -1.6391 C   0  0  0  0  0  0  0  0  0  0  0  0
    0.2460   -2.1292   -0.7543 N   0  0  0  0  0  0  0  0  0  0  0  0
   -0.0004   -0.8708   -0.3846 C   0  0  0  0  0  0  0  0  0  0  0  0
    0.7719   -0.0670    0.5605 C   0  0  0  0  0  0  0  0  0  0  0  0
    1.8578   -0.4404    1.2381 N   0  0  0  0  0  0  0  0  0  0  0  0
    2.3693    0.4948    2.0517 C   0  0  0  0  0  0  0  0  0  0  0  0
    1.8353    1.7897    2.2050 C   0  0  0  0  0  0  0  0  0  0  0  0
    0.7115    2.1565    1.4950 C   0  0  0  0  0  0  0  0  0  0  0  0
    0.1585    1.2280    0.6611 C   0  0  0  0  0  0  0  0  0  0  0  0
   -2.7867   -0.0737   -2.1740 H   0  0  0  0  0  0  0  0  0  0  0  0
   -2.3561   -2.4316   -2.8896 H   0  0  0  0  0  0  0  0  0  0  0  0
   -0.4257   -3.6518   -1.9408 H   0  0  0  0  0  0  0  0  0  0  0  0
    3.2442    0.2035    2.6056 H   0  0  0  0  0  0  0  0  0  0  0  0
    2.3116    2.4832    2.8801 H   0  0  0  0  0  0  0  0  0  0  0  0
    0.2733    3.1419    1.5866 H   0  0  0  0  0  0  0  0  0  0  0  0
  1  2  2  0
  2  3  1  0
  3  4  1  0
  4  5  2  0
  5  6  1  0
  6  7  2  0
  7  8  1  0
  8  9  1  0
  9 10  2  0
 10 11  1  0
 11 12  2  0
 12 13  1  0
 13 14  2  0
 14  2  1  0
  8  3  2  0
 14  9  1  0
  4 15  1  0
  5 16  1  0
  6 17  1  0
 11 18  1  0
 12 19  1  0
 13 20  1  0
M  END
$$$$

     RDKit          3D

 20 22  0  0  0  0  0  0  0  0999 V2000
    1.5239   -2.3909    0.5482 O   0  0  0  0  0  0  0  0  0  0  0  0
    0.8713   -1.3661    0.3125 C   0  0  0  0  0  0  0  0  0  0  0  0
   -0.4915   -1.2770   -0.2845 C   0  0  0  0  0  0  0  0  0  0  0  0
   -1.3737   -2.2365   -0.7248 C   0  0  0  0  0  0  0  0  0  0  0  0
   -2.5778   -1.8096   -1.2346 C   0  0  0  0  0  0  0  0  0  0  0  0
   -2.8616   -0.4281   -1.2881 C   0  0  0  0  0  0  0  0  0  0  0  0
   -2.0311    0.5329   -0.8697 N   0  0  0  0  0  0  0  0  0  0  0  0
   -0.8656    0.0965   -0.3820 C   0  0  0  0  0  0  0  0  0  0  0  0
    0.2235    0.9143    0.1461 C   0  0  0  0  0  0  0  0  0  0  0  0
    0.2600    2.2422    0.2303 N   0  0  0  0  0  0  0  0  0  0  0  0
    1.3832    2.7475    0.7589 C   0  0  0  0  0  0  0  0  0  0  0  0
    2.4733    1.9702    1.1978 C   0  0  0  0  0  0  0  0  0  0  0  0
    2.4186    0.5956    1.0973 C   0  0  0  0  0  0  0  0  0  0  0  0
    1.2860    0.0444    0.5687 C   0  0  0  0  0  0  0  0  0  0  0  0
   -1.1166   -3.2846   -0.6650 H   0  0  0  0  0  0  0  0  0  0  0  0
   -3.3132   -2.5090   -1.5957 H   0  0  0  0  0  0  0  0  0  0  0  0
   -3.8042   -0.0901   -1.6789 H   0  0  0  0  0  0  0  0  0  0  0  0
    1.4174    3.8200    0.8360 H   0  0  0  0  0  0  0  0  0  0  0  0
    3.3419    2.4634    1.6072 H   0  0  0  0  0  0  0  0  0  0  0  0
    3.2363   -0.0353    1.4201 H   0  0  0  0  0  0  0  0  0  0  0  0
  1  2  2  0
  2  3  1  0
  3  4  1  0
  4  5  2  0
  5  6  1  0
  6  7  2  0
  7  8  1  0
  8  9  1  0
  9 10  2  0
 10 11  1  0
 11 12  2  0
 12 13  1  0
 13 14  2  0
 14  2  1  0
  8  3  2  0
 14  9  1  0
  4 15  1  0
  5 16  1  0
  6 17  1  0
 11 18  1  0
 12 19  1  0
 13 20  1  0
M  END
$$$$

     RDKit          3D

 20 22  0  0  0  0  0  0  0  0999 V2000
   -2.2553    1.1363    1.3878 O   0  0  0  0  0  0  0  0  0  0  0  0
   -1.2883    0.6418    0.7972 C   0  0  0  0  0  0  0  0  0  0  0  0
   -1.2931   -0.0394   -0.5265 C   0  0  0  0  0  0  0  0  0  0  0  0
   -2.3031   -0.3196   -1.4167 C   0  0  0  0  0  0  0  0  0  0  0  0
   -1.9633   -0.9691   -2.5789 C   0  0  0  0  0  0  0  0  0  0  0  0
   -0.6178   -1.3264   -2.8103 C   0  0  0  0  0  0  0  0  0  0  0  0
    0.3884   -1.0743   -1.9681 N   0  0  0  0  0  0  0  0  0  0  0  0
    0.0386   -0.4429   -0.8444 C   0  0  0  0  0  0  0  0  0  0  0  0
    0.9226   -0.0406    0.2484 C   0  0  0  0  0  0  0  0  0  0  0  0
    2.2367   -0.2404    0.3405 N   0  0  0  0  0  0  0  0  0  0  0  0
    2.8092    0.2375    1.4549 C   0  0  0  0  0  0  0  0  0  0  0  0
    2.1128    0.8971    2.4870 C   0  0  0  0  0  0  0  0  0  0  0  0
    0.7504    1.0860    2.3785 C   0  0  0  0  0  0  0  0  0  0  0  0
    0.1331    0.6175    1.2521 C   0  0  0  0  0  0  0  0  0  0  0  0
   -3.3215   -0.0296   -1.1990 H   0  0  0  0  0  0  0  0  0  0  0  0
   -2.7053   -1.2139   -3.3200 H   0  0  0  0  0  0  0  0  0  0  0  0
   -0.3485   -1.8389   -3.7148 H   0  0  0  0  0  0  0  0  0  0  0  0
    3.8719    0.0855    1.5307 H   0  0  0  0  0  0  0  0  0  0  0  0
    2.6538    1.2471    3.3531 H   0  0  0  0  0  0  0  0  0  0  0  0
    0.1786    1.5866    3.1484 H   0  0  0  0  0  0  0  0  0  0  0  0
  1  2  2  0
  2  3  1  0
  3  4  1  0
  4  5  2  0
  5  6  1  0
  6  7  2  0
  7  8  1  0
  8  9  1  0
  9 10  2  0
 10 11  1  0
 11 12  2  0
 12 13  1  0
 13 14  2  0
 14  2  1  0
  8  3  2  0
 14  9  1  0
  4 15  1  0
  5 16  1  0
  6 17  1  0
 11 18  1  0
 12 19  1  0
 13 20  1  0
M  END
$$$$
